CRYSTAL
# Primitive lattice vectors in Angstrom
PRIMVEC
 3.08500000000000 0.00000000000000 0.00000000000000
 -1.54250000000000 2.67168837067499 0.00000000000000
 0.00000000000000 0.00000000000000 3.52300000000000
# Cartesian coordinates in Angstrom.
PRIMCOORD
 3 1
5     1.54250000000000     0.89056279022500     1.76150000000000
5     0.00000000000000     1.78112558045000     1.76150000000000
12     0.00000000000000     0.00000000000000     0.00000000000000