CRYSTAL
# Primitive lattice vectors in Angstrom
PRIMVEC
 0.00000000000000 2.46650000000000 2.46650000000000
 2.46650000000000 0.00000000000000 2.46650000000000
 2.46650000000000 2.46650000000000 0.00000000000000
# Cartesian coordinates in Angstrom.
PRIMCOORD
 1 1
82     0.00000000000000     0.00000000000000     0.00000000000000